network/glm/Elermorevale/subs/HP00019405GTX00000001.glm



object transformer {
      name HP00019405GTX00000001_TX;
      phases ABC;
      from HP00019405GTX00000001;
      to HP00019405GTX00000001_LV;
      configuration HP00019405GTX00000001_config;
      };



object meter {
      name HP00019405GTX00000001_LV;
      phases ABCN;
      nominal_voltage  240;
      };


object switch {
      name HP00019405GTX00000001_LV-HP00019405LDI00019405_T1;
      phases ABCN;
      from HP00019405GTX00000001_LV;
      to HP00019405LDI00019405_T1;
      status CLOSED;
      };



object meter {
      name HP00019405LDI00019405_T1;
      phases ABCN;
      nominal_voltage  240;
      };


object fuse {
      name HP00019405LDI00019405;
      phases ABCN;
      from HP00019405LDI00019405_T1;
      to HP00019405LDI00019405_T2;
      phase_A_status GOOD;
      phase_B_status GOOD;
      phase_C_status GOOD;
      current_limit  10000 A;
      mean_replacement_time 3600;
      };



object meter {
      name HP00019405LDI00019405_T2;
      phases ABCN;
      nominal_voltage  240;
      };


object switch {
      name HP00019405LDI00019405_T2-FDR_19405_LV_NODE_025;
      phases ABCN;
      from HP00019405LDI00019405_T2;
      to FDR_19405_LV_NODE_025;
      status CLOSED;
      };



object meter {
      name FDR_19405_LV_NODE_025;
      phases ABCN;
      nominal_voltage  240;
      };


object overhead_line {
      name FDR_19405_LV_NODE_025-FDR_19405_LV_NODE_026;
      phases ABCN;
      from FDR_19405_LV_NODE_025;
      to FDR_19405_LV_NODE_026;
      length 32.9 m;
      configuration conf_OHLine_51164;
      };



object meter {
      name FDR_19405_LV_NODE_026;
      phases ABCN;
      nominal_voltage  240;
      };


object overhead_line {
      name FDR_19405_LV_NODE_026-FDR_19405_LV_SP_5334624;
      phases AN;
      from FDR_19405_LV_NODE_026;
      to FDR_19405_LV_SP_5334624;
      length 24.2 m;
      configuration conf_OHLine_2312;
      };



object meter {
      name FDR_19405_LV_SP_5334624;
      phases AN;
      nominal_voltage  240;
      };


object load {
      name LOAD_8283664;
      parent FDR_19405_LV_SP_5334624;
      phases AN;
      nominal_voltage  240;
      base_power_A Load_19405.result;
      power_fraction_A 1;
      current_fraction_A 0;
      impedance_fraction_A 0;
      power_pf_A L_pf_Head80784.output;
      current_pf_A 1;
      impedance_pf_A 1;
      
      // Customer Trial Appended Data //
      ausgrid_sa1 11103123337;
      ausgrid_annual_consumption 1114.25;
      ausgrid_annual_consumption_with_control_load 2088.7045455;
      ausgrid_simple_cell 25;
      ausgrid_elec_band_residential 1;
      ausgrid_elec_band_business 0;
      ausgrid_unit 0;
      ausgrid_income_band 1;
      ausgrid_gas_band 1;
      ausgrid_climate_zone 5;
      ausgrid_controlled_load 1;
      ausgrid_generation 0;
      };


object switch {
      name FDR_19405_LV_NODE_026-FDR_19405_LV_NODE_027_3;
      phases ABCN;
      from FDR_19405_LV_NODE_026;
      to FDR_19405_LV_NODE_027_3;
      status CLOSED;
      };



object meter {
      name FDR_19405_LV_NODE_027_3;
      phases ABCN;
      nominal_voltage  240;
      };


object underground_line {
      name FDR_19405_LV_NODE_027_3-FDR_19405_LV_SP_5334627;
      phases BN;
      from FDR_19405_LV_NODE_027_3;
      to FDR_19405_LV_SP_5334627;
      length 14.8 m;
      configuration conf_UGLine_500;
      };



object meter {
      name FDR_19405_LV_SP_5334627;
      phases BN;
      nominal_voltage  240;
      };


object load {
      name LOAD_8283662;
      parent FDR_19405_LV_SP_5334627;
      phases BN;
      nominal_voltage  240;
      base_power_B Load_19405.result;
      power_fraction_B 1;
      current_fraction_B 0;
      impedance_fraction_B 0;
      power_pf_B L_pf_Head80784.output;
      current_pf_B 1;
      impedance_pf_B 1;
      
      // Customer Trial Appended Data //
      ausgrid_sa1 11103123342;
      ausgrid_annual_consumption 9115.185334;
      ausgrid_annual_consumption_with_control_load 10700.319045;
      ausgrid_simple_cell 27;
      ausgrid_elec_band_residential 3;
      ausgrid_elec_band_business 0;
      ausgrid_unit 0;
      ausgrid_income_band 1;
      ausgrid_gas_band 1;
      ausgrid_climate_zone 5;
      ausgrid_controlled_load 1;
      ausgrid_generation 0;
      };


object overhead_line {
      name FDR_19405_LV_NODE_026-FDR_19405_LV_NODE_027;
      phases ABCN;
      from FDR_19405_LV_NODE_026;
      to FDR_19405_LV_NODE_027;
      length 1.3 m;
      configuration conf_OHLine_600;
      };



object meter {
      name FDR_19405_LV_NODE_027;
      phases ABCN;
      nominal_voltage  240;
      };


object underground_line {
      name FDR_19405_LV_NODE_027-FDR_19405_LV_SP_5334623;
      phases AN;
      from FDR_19405_LV_NODE_027;
      to FDR_19405_LV_SP_5334623;
      length 22.8 m;
      configuration conf_UGLine_500;
      };



object meter {
      name FDR_19405_LV_SP_5334623;
      phases AN;
      nominal_voltage  240;
      };


object load {
      name LOAD_8283684;
      parent FDR_19405_LV_SP_5334623;
      phases AN;
      nominal_voltage  240;
      base_power_A Load_19405.result;
      power_fraction_A 1;
      current_fraction_A 0;
      impedance_fraction_A 0;
      power_pf_A L_pf_Head80784.output;
      current_pf_A 1;
      impedance_pf_A 1;
      
      // Customer Trial Appended Data //
      ausgrid_sa1 11103123337;
      ausgrid_annual_consumption 4589.2045455;
      ausgrid_annual_consumption_with_control_load 7664.9772727;
      ausgrid_simple_cell 25;
      ausgrid_elec_band_residential 1;
      ausgrid_elec_band_business 0;
      ausgrid_unit 0;
      ausgrid_income_band 1;
      ausgrid_gas_band 1;
      ausgrid_climate_zone 5;
      ausgrid_controlled_load 1;
      ausgrid_generation 1;
      };


object overhead_line {
      name FDR_19405_LV_NODE_026-FDR_19405_LV_NODE_027_1;
      phases ABCN;
      from FDR_19405_LV_NODE_026;
      to FDR_19405_LV_NODE_027_1;
      length 38.1 m;
      configuration conf_OHLine_51164;
      };



object meter {
      name FDR_19405_LV_NODE_027_1;
      phases ABCN;
      nominal_voltage  240;
      };


object overhead_line {
      name FDR_19405_LV_NODE_027_1-FDR_19405_LV_SP_5334651;
      phases CN;
      from FDR_19405_LV_NODE_027_1;
      to FDR_19405_LV_SP_5334651;
      length 33.7 m;
      configuration conf_OHLine_600;
      };



object meter {
      name FDR_19405_LV_SP_5334651;
      phases CN;
      nominal_voltage  240;
      };


object load {
      name LOAD_8283674;
      parent FDR_19405_LV_SP_5334651;
      phases CN;
      nominal_voltage  240;
      base_power_C Load_19405.result;
      power_fraction_C 1;
      current_fraction_C 0;
      impedance_fraction_C 0;
      power_pf_C L_pf_Head80784.output;
      current_pf_C 1;
      impedance_pf_C 1;
      
      // Customer Trial Appended Data //
      ausgrid_sa1 11103123342;
      ausgrid_annual_consumption 10240.63325;
      ausgrid_annual_consumption_with_control_load 10240.63325;
      ausgrid_simple_cell 27;
      ausgrid_elec_band_residential 3;
      ausgrid_elec_band_business 0;
      ausgrid_unit 0;
      ausgrid_income_band 1;
      ausgrid_gas_band 1;
      ausgrid_climate_zone 5;
      ausgrid_controlled_load 0;
      ausgrid_generation 0;
      };


object overhead_line {
      name FDR_19405_LV_NODE_027_1-FDR_19405_LV_SP_5334626;
      phases CN;
      from FDR_19405_LV_NODE_027_1;
      to FDR_19405_LV_SP_5334626;
      length 18.5 m;
      configuration conf_OHLine_600;
      };



object meter {
      name FDR_19405_LV_SP_5334626;
      phases CN;
      nominal_voltage  240;
      };


object load {
      name LOAD_8283636;
      parent FDR_19405_LV_SP_5334626;
      phases CN;
      nominal_voltage  240;
      base_power_C Load_19405.result;
      power_fraction_C 1;
      current_fraction_C 0;
      impedance_fraction_C 0;
      power_pf_C L_pf_Head80784.output;
      current_pf_C 1;
      impedance_pf_C 1;
      
      // Customer Trial Appended Data //
      ausgrid_sa1 11103123342;
      ausgrid_annual_consumption 6983.3697938;
      ausgrid_annual_consumption_with_control_load 8997.1414433;
      ausgrid_simple_cell 26;
      ausgrid_elec_band_residential 2;
      ausgrid_elec_band_business 0;
      ausgrid_unit 0;
      ausgrid_income_band 1;
      ausgrid_gas_band 1;
      ausgrid_climate_zone 5;
      ausgrid_controlled_load 1;
      ausgrid_generation 1;
      };


object inverter {
      name DG_8283636;
      parent FDR_19405_LV_SP_5334626;
      phases CN;
      generator_mode CONSTANT_PF;
      generator_status ONLINE;
      inverter_type PWM;
      power_factor 0.9;
      rated_power 10000;
      inverter_efficiency 0.95;
      };


object solar {
      name SOLAR_8283636;
      parent DG_8283636;
      phases CN;
      generator_status ONLINE;
      weather ElermoreClimate;
      panel_type SINGLE_CRYSTAL_SILICON;
      generator_mode CONSTANT_PF;
      area 9.028 m^2;
      tilt_angle 23;
      efficiency 0.14;
      orientation_azimuth 40;
      orientation  FIXED_AXIS;
      SOLAR_TILT_MODEL  SOLPOS;
      SOLAR_POWER_MODEL  DEFAULT;
      };


object overhead_line {
      name FDR_19405_LV_NODE_027_1-FDR_19405_LV_NODE_028;
      phases ABCN;
      from FDR_19405_LV_NODE_027_1;
      to FDR_19405_LV_NODE_028;
      length 37.4 m;
      configuration conf_OHLine_57002;
      };



object meter {
      name FDR_19405_LV_NODE_028;
      phases ABCN;
      nominal_voltage  240;
      };


object overhead_line {
      name FDR_19405_LV_NODE_028-FDR_19405_LV_NODE_029_2;
      phases ABCN;
      from FDR_19405_LV_NODE_028;
      to FDR_19405_LV_NODE_029_2;
      length 30.0 m;
      configuration conf_OHLine_57002;
      };



object meter {
      name FDR_19405_LV_NODE_029_2;
      phases ABCN;
      nominal_voltage  240;
      };


object overhead_line {
      name FDR_19405_LV_NODE_029_2-FDR_19405_LV_NODE_030_5;
      phases ABCN;
      from FDR_19405_LV_NODE_029_2;
      to FDR_19405_LV_NODE_030_5;
      length 32.3 m;
      configuration conf_OHLine_57002;
      };



object meter {
      name FDR_19405_LV_NODE_030_5;
      phases ABCN;
      nominal_voltage  240;
      };


object overhead_line {
      name FDR_19405_LV_NODE_030_5-FDR_19405_LV_SP_5334653;
      phases ABCN;
      from FDR_19405_LV_NODE_030_5;
      to FDR_19405_LV_SP_5334653;
      length 15.3 m;
      configuration conf_OHLine_600;
      };



object meter {
      name FDR_19405_LV_SP_5334653;
      phases ABCN;
      nominal_voltage  240;
      };


object load {
      name LOAD_8283666;
      parent FDR_19405_LV_SP_5334653;
      phases CN;
      nominal_voltage  240;
      base_power_C Load_19405.result;
      power_fraction_C 1;
      current_fraction_C 0;
      impedance_fraction_C 0;
      power_pf_C L_pf_Head80784.output;
      current_pf_C 1;
      impedance_pf_C 1;
      
      // Customer Trial Appended Data //
      ausgrid_sa1 11103123342;
      ausgrid_annual_consumption 8928.4820672;
      ausgrid_annual_consumption_with_control_load 10963.963885;
      ausgrid_simple_cell 26;
      ausgrid_elec_band_residential 2;
      ausgrid_elec_band_business 0;
      ausgrid_unit 0;
      ausgrid_income_band 1;
      ausgrid_gas_band 1;
      ausgrid_climate_zone 5;
      ausgrid_controlled_load 1;
      ausgrid_generation 0;
      };


object load {
      name LOAD_8283712;
      parent FDR_19405_LV_SP_5334653;
      phases BN;
      nominal_voltage  240;
      base_power_B Load_19405.result;
      power_fraction_B 1;
      current_fraction_B 0;
      impedance_fraction_B 0;
      power_pf_B L_pf_Head80784.output;
      current_pf_B 1;
      impedance_pf_B 1;
      
      // Customer Trial Appended Data //
      ausgrid_sa1 11103123342;
      ausgrid_annual_consumption 158.88536842;
      ausgrid_annual_consumption_with_control_load 158.88536842;
      ausgrid_simple_cell 49;
      ausgrid_elec_band_residential 0;
      ausgrid_elec_band_business 1;
      ausgrid_unit 1;
      ausgrid_income_band 1;
      ausgrid_gas_band 1;
      ausgrid_climate_zone 5;
      ausgrid_controlled_load 0;
      ausgrid_generation 0;
      };


object load {
      name LOAD_8283722;
      parent FDR_19405_LV_SP_5334653;
      phases CN;
      nominal_voltage  240;
      base_power_C Load_19405.result;
      power_fraction_C 1;
      current_fraction_C 0;
      impedance_fraction_C 0;
      power_pf_C L_pf_Head80784.output;
      current_pf_C 1;
      impedance_pf_C 1;
      
      // Customer Trial Appended Data //
      ausgrid_sa1 11103123342;
      ausgrid_annual_consumption 409.41;
      ausgrid_annual_consumption_with_control_load 409.41;
      ausgrid_simple_cell 49;
      ausgrid_elec_band_residential 0;
      ausgrid_elec_band_business 1;
      ausgrid_unit 1;
      ausgrid_income_band 1;
      ausgrid_gas_band 1;
      ausgrid_climate_zone 5;
      ausgrid_controlled_load 0;
      ausgrid_generation 0;
      };


object overhead_line {
      name FDR_19405_LV_NODE_030_5-FDR_19405_LV_NODE_031_3;
      phases ABCN;
      from FDR_19405_LV_NODE_030_5;
      to FDR_19405_LV_NODE_031_3;
      length 28.6 m;
      configuration conf_OHLine_57002;
      };



object meter {
      name FDR_19405_LV_NODE_031_3;
      phases ABCN;
      nominal_voltage  240;
      };


object overhead_line {
      name FDR_19405_LV_NODE_031_3-FDR_1431_LV_SW_032_T1;
      phases ABCN;
      from FDR_19405_LV_NODE_031_3;
      to FDR_1431_LV_SW_032_T1;
      length 2.0 m;
      configuration conf_OHLine_57002;
      };



object meter {
      name FDR_1431_LV_SW_032_T1;
      phases ABCN;
      nominal_voltage  240;
      };


object overhead_line {
      name FDR_19405_LV_NODE_029_2-FDR_19405_LV_SP_5334652;
      phases BN;
      from FDR_19405_LV_NODE_029_2;
      to FDR_19405_LV_SP_5334652;
      length 14.5 m;
      configuration conf_OHLine_600;
      };



object meter {
      name FDR_19405_LV_SP_5334652;
      phases BN;
      nominal_voltage  240;
      };


object load {
      name LOAD_8283672;
      parent FDR_19405_LV_SP_5334652;
      phases BN;
      nominal_voltage  240;
      base_power_B Load_19405.result;
      power_fraction_B 1;
      current_fraction_B 0;
      impedance_fraction_B 0;
      power_pf_B L_pf_Head80784.output;
      current_pf_B 1;
      impedance_pf_B 1;
      
      // Customer Trial Appended Data //
      ausgrid_sa1 11103123342;
      ausgrid_annual_consumption 2793.7045455;
      ausgrid_annual_consumption_with_control_load 4879.2727273;
      ausgrid_simple_cell 25;
      ausgrid_elec_band_residential 1;
      ausgrid_elec_band_business 0;
      ausgrid_unit 0;
      ausgrid_income_band 1;
      ausgrid_gas_band 1;
      ausgrid_climate_zone 5;
      ausgrid_controlled_load 1;
      ausgrid_generation 0;
      };


object overhead_line {
      name FDR_19405_LV_NODE_028-FDR_19405_LV_SP_5334650;
      phases AN;
      from FDR_19405_LV_NODE_028;
      to FDR_19405_LV_SP_5334650;
      length 13.0 m;
      configuration conf_OHLine_600;
      };



object meter {
      name FDR_19405_LV_SP_5334650;
      phases AN;
      nominal_voltage  240;
      };


object load {
      name LOAD_8283676;
      parent FDR_19405_LV_SP_5334650;
      phases AN;
      nominal_voltage  240;
      base_power_A Load_19405.result;
      power_fraction_A 1;
      current_fraction_A 0;
      impedance_fraction_A 0;
      power_pf_A L_pf_Head80784.output;
      current_pf_A 1;
      impedance_pf_A 1;
      
      // Customer Trial Appended Data //
      ausgrid_sa1 11103123342;
      ausgrid_annual_consumption 4875.2519355;
      ausgrid_annual_consumption_with_control_load 4875.2519355;
      ausgrid_simple_cell 25;
      ausgrid_elec_band_residential 1;
      ausgrid_elec_band_business 0;
      ausgrid_unit 0;
      ausgrid_income_band 1;
      ausgrid_gas_band 1;
      ausgrid_climate_zone 5;
      ausgrid_controlled_load 1;
      ausgrid_generation 0;
      };


object overhead_line {
      name FDR_19405_LV_NODE_028-FDR_19405_LV_NODE_029_3;
      phases ABCN;
      from FDR_19405_LV_NODE_028;
      to FDR_19405_LV_NODE_029_3;
      length 17.5 m;
      configuration conf_OHLine_57002;
      };



object meter {
      name FDR_19405_LV_NODE_029_3;
      phases ABCN;
      nominal_voltage  240;
      };


object overhead_line {
      name FDR_19405_LV_NODE_029_3-FDR_19405_LV_SP_5334763;
      phases BN;
      from FDR_19405_LV_NODE_029_3;
      to FDR_19405_LV_SP_5334763;
      length 16.8 m;
      configuration conf_OHLine_600;
      };



object meter {
      name FDR_19405_LV_SP_5334763;
      phases BN;
      nominal_voltage  240;
      };


object load {
      name LOAD_8283686;
      parent FDR_19405_LV_SP_5334763;
      phases BN;
      nominal_voltage  240;
      base_power_B Load_19405.result;
      power_fraction_B 1;
      current_fraction_B 0;
      impedance_fraction_B 0;
      power_pf_B L_pf_Head80784.output;
      current_pf_B 1;
      impedance_pf_B 1;
      
      // Customer Trial Appended Data //
      ausgrid_sa1 11103123322;
      ausgrid_annual_consumption 4042.9090909;
      ausgrid_annual_consumption_with_control_load 6945.1363636;
      ausgrid_simple_cell 25;
      ausgrid_elec_band_residential 1;
      ausgrid_elec_band_business 0;
      ausgrid_unit 0;
      ausgrid_income_band 1;
      ausgrid_gas_band 1;
      ausgrid_climate_zone 5;
      ausgrid_controlled_load 1;
      ausgrid_generation 0;
      };


object overhead_line {
      name FDR_19405_LV_NODE_029_3-FDR_19405_LV_SP_5334764;
      phases AN;
      from FDR_19405_LV_NODE_029_3;
      to FDR_19405_LV_SP_5334764;
      length 14.9 m;
      configuration conf_OHLine_600;
      };



object meter {
      name FDR_19405_LV_SP_5334764;
      phases AN;
      nominal_voltage  240;
      };


object load {
      name LOAD_8283688;
      parent FDR_19405_LV_SP_5334764;
      phases AN;
      nominal_voltage  240;
      base_power_A Load_19405.result;
      power_fraction_A 1;
      current_fraction_A 0;
      impedance_fraction_A 0;
      power_pf_A L_pf_Head80784.output;
      current_pf_A 1;
      impedance_pf_A 1;
      
      // Customer Trial Appended Data //
      ausgrid_sa1 11103123322;
      ausgrid_annual_consumption 6812.417732;
      ausgrid_annual_consumption_with_control_load 9537.4778351;
      ausgrid_simple_cell 26;
      ausgrid_elec_band_residential 2;
      ausgrid_elec_band_business 0;
      ausgrid_unit 0;
      ausgrid_income_band 1;
      ausgrid_gas_band 1;
      ausgrid_climate_zone 5;
      ausgrid_controlled_load 1;
      ausgrid_generation 0;
      };


object overhead_line {
      name FDR_19405_LV_NODE_029_3-FDR_19405_LV_SP_5334762;
      phases CN;
      from FDR_19405_LV_NODE_029_3;
      to FDR_19405_LV_SP_5334762;
      length 33.1 m;
      configuration conf_OHLine_600;
      };



object meter {
      name FDR_19405_LV_SP_5334762;
      phases CN;
      nominal_voltage  240;
      };


object load {
      name LOAD_8283682;
      parent FDR_19405_LV_SP_5334762;
      phases CN;
      nominal_voltage  240;
      base_power_C Load_19405.result;
      power_fraction_C 1;
      current_fraction_C 0;
      impedance_fraction_C 0;
      power_pf_C L_pf_Head80784.output;
      current_pf_C 1;
      impedance_pf_C 1;
      
      // Customer Trial Appended Data //
      ausgrid_sa1 11103123322;
      ausgrid_annual_consumption 4599.1795455;
      ausgrid_annual_consumption_with_control_load 5704.65;
      ausgrid_simple_cell 25;
      ausgrid_elec_band_residential 1;
      ausgrid_elec_band_business 0;
      ausgrid_unit 0;
      ausgrid_income_band 1;
      ausgrid_gas_band 1;
      ausgrid_climate_zone 5;
      ausgrid_controlled_load 1;
      ausgrid_generation 0;
      };


object overhead_line {
      name FDR_19405_LV_NODE_029_3-FDR_19405_LV_NODE_030_4;
      phases ABCN;
      from FDR_19405_LV_NODE_029_3;
      to FDR_19405_LV_NODE_030_4;
      length 37.2 m;
      configuration conf_OHLine_57002;
      };



object meter {
      name FDR_19405_LV_NODE_030_4;
      phases ABCN;
      nominal_voltage  240;
      };


object overhead_line {
      name FDR_19405_LV_NODE_030_4-FDR_19405_LV_SP_5334649;
      phases CN;
      from FDR_19405_LV_NODE_030_4;
      to FDR_19405_LV_SP_5334649;
      length 31.2 m;
      configuration conf_OHLine_600;
      };



object meter {
      name FDR_19405_LV_SP_5334649;
      phases CN;
      nominal_voltage  240;
      };


object load {
      name LOAD_8283678;
      parent FDR_19405_LV_SP_5334649;
      phases CN;
      nominal_voltage  240;
      base_power_C Load_19405.result;
      power_fraction_C 1;
      current_fraction_C 0;
      impedance_fraction_C 0;
      power_pf_C L_pf_Head80784.output;
      current_pf_C 1;
      impedance_pf_C 1;
      
      // Customer Trial Appended Data //
      ausgrid_sa1 11103123342;
      ausgrid_annual_consumption 3161.2727273;
      ausgrid_annual_consumption_with_control_load 4558.8636364;
      ausgrid_simple_cell 25;
      ausgrid_elec_band_residential 1;
      ausgrid_elec_band_business 0;
      ausgrid_unit 0;
      ausgrid_income_band 1;
      ausgrid_gas_band 1;
      ausgrid_climate_zone 5;
      ausgrid_controlled_load 1;
      ausgrid_generation 0;
      };


object overhead_line {
      name FDR_19405_LV_NODE_030_4-FDR_19405_LV_SP_5334767;
      phases CN;
      from FDR_19405_LV_NODE_030_4;
      to FDR_19405_LV_SP_5334767;
      length 19.5 m;
      configuration conf_OHLine_600;
      };



object meter {
      name FDR_19405_LV_SP_5334767;
      phases CN;
      nominal_voltage  240;
      };


object load {
      name LOAD_8283698;
      parent FDR_19405_LV_SP_5334767;
      phases CN;
      nominal_voltage  240;
      base_power_C Load_19405.result;
      power_fraction_C 1;
      current_fraction_C 0;
      impedance_fraction_C 0;
      power_pf_C L_pf_Head80784.output;
      current_pf_C 1;
      impedance_pf_C 1;
      
      // Customer Trial Appended Data //
      ausgrid_sa1 11103123322;
      ausgrid_annual_consumption 3488.0308219;
      ausgrid_annual_consumption_with_control_load 3488.0308219;
      ausgrid_simple_cell 25;
      ausgrid_elec_band_residential 1;
      ausgrid_elec_band_business 0;
      ausgrid_unit 0;
      ausgrid_income_band 1;
      ausgrid_gas_band 1;
      ausgrid_climate_zone 5;
      ausgrid_controlled_load 1;
      ausgrid_generation 0;
      };


object overhead_line {
      name FDR_19405_LV_NODE_030_4-FDR_19405_LV_NODE_031_1;
      phases ABCN;
      from FDR_19405_LV_NODE_030_4;
      to FDR_19405_LV_NODE_031_1;
      length 32.3 m;
      configuration conf_OHLine_57002;
      };



object meter {
      name FDR_19405_LV_NODE_031_1;
      phases ABCN;
      nominal_voltage  240;
      };


object overhead_line {
      name FDR_19405_LV_NODE_031_1-UNK_LV_SW_032_1_T1;
      phases ABCN;
      from FDR_19405_LV_NODE_031_1;
      to UNK_LV_SW_032_1_T1;
      length 2.0 m;
      configuration conf_OHLine_57002;
      };



object meter {
      name UNK_LV_SW_032_1_T1;
      phases ABCN;
      nominal_voltage  240;
      };


object switch {
      name UNK_LV_SW_032_1;
      phases ABCN;
      from UNK_LV_SW_032_1_T1;
      to UNK_LV_SW_032_1_T2;
      status CLOSED;
      };



object meter {
      name UNK_LV_SW_032_1_T2;
      phases ABCN;
      nominal_voltage  240;
      };


object overhead_line {
      name FDR_19405_LV_NODE_031_1-FDR_19405_LV_NODE_032_1;
      phases ABCN;
      from FDR_19405_LV_NODE_031_1;
      to FDR_19405_LV_NODE_032_1;
      length 15.2 m;
      configuration conf_OHLine_600;
      };



object meter {
      name FDR_19405_LV_NODE_032_1;
      phases ABCN;
      nominal_voltage  240;
      };


object overhead_line {
      name FDR_19405_LV_NODE_032_1-FDR_19405_LV_NODE_033_1;
      phases ABCN;
      from FDR_19405_LV_NODE_032_1;
      to FDR_19405_LV_NODE_033_1;
      length 1.1 m;
      configuration conf_OHLine_600;
      };



object meter {
      name FDR_19405_LV_NODE_033_1;
      phases ABCN;
      nominal_voltage  240;
      };


object underground_line {
      name FDR_19405_LV_NODE_033_1-FDR_19405_LV_SP_5334580;
      phases ABCN;
      from FDR_19405_LV_NODE_033_1;
      to FDR_19405_LV_SP_5334580;
      length 14.5 m;
      configuration conf_UGLine_500;
      };



object meter {
      name FDR_19405_LV_SP_5334580;
      phases ABCN;
      nominal_voltage  240;
      };


object load {
      name LOAD_8283718;
      parent FDR_19405_LV_SP_5334580;
      phases AN;
      nominal_voltage  240;
      base_power_A Load_19405.result;
      power_fraction_A 1;
      current_fraction_A 0;
      impedance_fraction_A 0;
      power_pf_A L_pf_Head80784.output;
      current_pf_A 1;
      impedance_pf_A 1;
      
      // Customer Trial Appended Data //
      ausgrid_sa1 11103123342;
      ausgrid_annual_consumption 4010.7272727;
      ausgrid_annual_consumption_with_control_load 4010.7272727;
      ausgrid_simple_cell 37;
      ausgrid_elec_band_residential 1;
      ausgrid_elec_band_business 0;
      ausgrid_unit 1;
      ausgrid_income_band 1;
      ausgrid_gas_band 1;
      ausgrid_climate_zone 5;
      ausgrid_controlled_load 0;
      ausgrid_generation 0;
      };


object load {
      name LOAD_8283730;
      parent FDR_19405_LV_SP_5334580;
      phases BN;
      nominal_voltage  240;
      base_power_B Load_19405.result;
      power_fraction_B 1;
      current_fraction_B 0;
      impedance_fraction_B 0;
      power_pf_B L_pf_Head80784.output;
      current_pf_B 1;
      impedance_pf_B 1;
      
      // Customer Trial Appended Data //
      ausgrid_sa1 11103123342;
      ausgrid_annual_consumption 800.9;
      ausgrid_annual_consumption_with_control_load 1746.3;
      ausgrid_simple_cell 37;
      ausgrid_elec_band_residential 1;
      ausgrid_elec_band_business 0;
      ausgrid_unit 1;
      ausgrid_income_band 1;
      ausgrid_gas_band 1;
      ausgrid_climate_zone 5;
      ausgrid_controlled_load 1;
      ausgrid_generation 0;
      };


object load {
      name LOAD_8283766;
      parent FDR_19405_LV_SP_5334580;
      phases CN;
      nominal_voltage  240;
      base_power_C Load_19405.result;
      power_fraction_C 1;
      current_fraction_C 0;
      impedance_fraction_C 0;
      power_pf_C L_pf_Head80784.output;
      current_pf_C 1;
      impedance_pf_C 1;
      
      // Customer Trial Appended Data //
      ausgrid_sa1 11103123342;
      ausgrid_annual_consumption 1380.7;
      ausgrid_annual_consumption_with_control_load 2674.3;
      ausgrid_simple_cell 37;
      ausgrid_elec_band_residential 1;
      ausgrid_elec_band_business 0;
      ausgrid_unit 1;
      ausgrid_income_band 1;
      ausgrid_gas_band 1;
      ausgrid_climate_zone 5;
      ausgrid_controlled_load 1;
      ausgrid_generation 0;
      };


object load {
      name LOAD_8283782;
      parent FDR_19405_LV_SP_5334580;
      phases AN;
      nominal_voltage  240;
      base_power_A Load_19405.result;
      power_fraction_A 1;
      current_fraction_A 0;
      impedance_fraction_A 0;
      power_pf_A L_pf_Head80784.output;
      current_pf_A 1;
      impedance_pf_A 1;
      
      // Customer Trial Appended Data //
      ausgrid_sa1 11103123342;
      ausgrid_annual_consumption 2237.1;
      ausgrid_annual_consumption_with_control_load 3880;
      ausgrid_simple_cell 37;
      ausgrid_elec_band_residential 1;
      ausgrid_elec_band_business 0;
      ausgrid_unit 1;
      ausgrid_income_band 1;
      ausgrid_gas_band 1;
      ausgrid_climate_zone 5;
      ausgrid_controlled_load 1;
      ausgrid_generation 0;
      };


object load {
      name LOAD_8283786;
      parent FDR_19405_LV_SP_5334580;
      phases BN;
      nominal_voltage  240;
      base_power_B Load_19405.result;
      power_fraction_B 1;
      current_fraction_B 0;
      impedance_fraction_B 0;
      power_pf_B L_pf_Head80784.output;
      current_pf_B 1;
      impedance_pf_B 1;
      
      // Customer Trial Appended Data //
      ausgrid_sa1 11103123342;
      ausgrid_annual_consumption 1898.8;
      ausgrid_annual_consumption_with_control_load 3063.7;
      ausgrid_simple_cell 37;
      ausgrid_elec_band_residential 1;
      ausgrid_elec_band_business 0;
      ausgrid_unit 1;
      ausgrid_income_band 1;
      ausgrid_gas_band 1;
      ausgrid_climate_zone 5;
      ausgrid_controlled_load 1;
      ausgrid_generation 0;
      };


object load {
      name LOAD_8283790;
      parent FDR_19405_LV_SP_5334580;
      phases CN;
      nominal_voltage  240;
      base_power_C Load_19405.result;
      power_fraction_C 1;
      current_fraction_C 0;
      impedance_fraction_C 0;
      power_pf_C L_pf_Head80784.output;
      current_pf_C 1;
      impedance_pf_C 1;
      
      // Customer Trial Appended Data //
      ausgrid_sa1 11103123342;
      ausgrid_annual_consumption 1313.2;
      ausgrid_annual_consumption_with_control_load 2705.6;
      ausgrid_simple_cell 37;
      ausgrid_elec_band_residential 1;
      ausgrid_elec_band_business 0;
      ausgrid_unit 1;
      ausgrid_income_band 1;
      ausgrid_gas_band 1;
      ausgrid_climate_zone 5;
      ausgrid_controlled_load 1;
      ausgrid_generation 0;
      };


object load {
      name LOAD_8283794;
      parent FDR_19405_LV_SP_5334580;
      phases AN;
      nominal_voltage  240;
      base_power_A Load_19405.result;
      power_fraction_A 1;
      current_fraction_A 0;
      impedance_fraction_A 0;
      power_pf_A L_pf_Head80784.output;
      current_pf_A 1;
      impedance_pf_A 1;
      
      // Customer Trial Appended Data //
      ausgrid_sa1 11103123342;
      ausgrid_annual_consumption 2881.5863636;
      ausgrid_annual_consumption_with_control_load 4559.8590909;
      ausgrid_simple_cell 37;
      ausgrid_elec_band_residential 1;
      ausgrid_elec_band_business 0;
      ausgrid_unit 1;
      ausgrid_income_band 1;
      ausgrid_gas_band 1;
      ausgrid_climate_zone 5;
      ausgrid_controlled_load 1;
      ausgrid_generation 0;
      };


object load {
      name LOAD_8283798;
      parent FDR_19405_LV_SP_5334580;
      phases BN;
      nominal_voltage  240;
      base_power_B Load_19405.result;
      power_fraction_B 1;
      current_fraction_B 0;
      impedance_fraction_B 0;
      power_pf_B L_pf_Head80784.output;
      current_pf_B 1;
      impedance_pf_B 1;
      
      // Customer Trial Appended Data //
      ausgrid_sa1 11103123342;
      ausgrid_annual_consumption 859.9;
      ausgrid_annual_consumption_with_control_load 1974.4;
      ausgrid_simple_cell 37;
      ausgrid_elec_band_residential 1;
      ausgrid_elec_band_business 0;
      ausgrid_unit 1;
      ausgrid_income_band 1;
      ausgrid_gas_band 1;
      ausgrid_climate_zone 5;
      ausgrid_controlled_load 1;
      ausgrid_generation 0;
      };


object load {
      name LOAD_8283802;
      parent FDR_19405_LV_SP_5334580;
      phases CN;
      nominal_voltage  240;
      base_power_C Load_19405.result;
      power_fraction_C 1;
      current_fraction_C 0;
      impedance_fraction_C 0;
      power_pf_C L_pf_Head80784.output;
      current_pf_C 1;
      impedance_pf_C 1;
      
      // Customer Trial Appended Data //
      ausgrid_sa1 11103123342;
      ausgrid_annual_consumption 1900.1;
      ausgrid_annual_consumption_with_control_load 2987.5;
      ausgrid_simple_cell 37;
      ausgrid_elec_band_residential 1;
      ausgrid_elec_band_business 0;
      ausgrid_unit 1;
      ausgrid_income_band 1;
      ausgrid_gas_band 1;
      ausgrid_climate_zone 5;
      ausgrid_controlled_load 1;
      ausgrid_generation 0;
      };


object load {
      name LOAD_8283806;
      parent FDR_19405_LV_SP_5334580;
      phases AN;
      nominal_voltage  240;
      base_power_A Load_19405.result;
      power_fraction_A 1;
      current_fraction_A 0;
      impedance_fraction_A 0;
      power_pf_A L_pf_Head80784.output;
      current_pf_A 1;
      impedance_pf_A 1;
      
      // Customer Trial Appended Data //
      ausgrid_sa1 11103123342;
      ausgrid_annual_consumption 1537.9;
      ausgrid_annual_consumption_with_control_load 3575.3;
      ausgrid_simple_cell 37;
      ausgrid_elec_band_residential 1;
      ausgrid_elec_band_business 0;
      ausgrid_unit 1;
      ausgrid_income_band 1;
      ausgrid_gas_band 1;
      ausgrid_climate_zone 5;
      ausgrid_controlled_load 1;
      ausgrid_generation 0;
      };


object load {
      name LOAD_8283734;
      parent FDR_19405_LV_SP_5334580;
      phases BN;
      nominal_voltage  240;
      base_power_B Load_19405.result;
      power_fraction_B 1;
      current_fraction_B 0;
      impedance_fraction_B 0;
      power_pf_B L_pf_Head80784.output;
      current_pf_B 1;
      impedance_pf_B 1;
      
      // Customer Trial Appended Data //
      ausgrid_sa1 11103123342;
      ausgrid_annual_consumption 5985.8;
      ausgrid_annual_consumption_with_control_load 6312.6;
      ausgrid_simple_cell 38;
      ausgrid_elec_band_residential 2;
      ausgrid_elec_band_business 0;
      ausgrid_unit 1;
      ausgrid_income_band 1;
      ausgrid_gas_band 1;
      ausgrid_climate_zone 5;
      ausgrid_controlled_load 1;
      ausgrid_generation 0;
      };


object load {
      name LOAD_8283738;
      parent FDR_19405_LV_SP_5334580;
      phases CN;
      nominal_voltage  240;
      base_power_C Load_19405.result;
      power_fraction_C 1;
      current_fraction_C 0;
      impedance_fraction_C 0;
      power_pf_C L_pf_Head80784.output;
      current_pf_C 1;
      impedance_pf_C 1;
      
      // Customer Trial Appended Data //
      ausgrid_sa1 11103123342;
      ausgrid_annual_consumption 1466.8;
      ausgrid_annual_consumption_with_control_load 2403.3;
      ausgrid_simple_cell 37;
      ausgrid_elec_band_residential 1;
      ausgrid_elec_band_business 0;
      ausgrid_unit 1;
      ausgrid_income_band 1;
      ausgrid_gas_band 1;
      ausgrid_climate_zone 5;
      ausgrid_controlled_load 1;
      ausgrid_generation 0;
      };


object load {
      name LOAD_8283742;
      parent FDR_19405_LV_SP_5334580;
      phases AN;
      nominal_voltage  240;
      base_power_A Load_19405.result;
      power_fraction_A 1;
      current_fraction_A 0;
      impedance_fraction_A 0;
      power_pf_A L_pf_Head80784.output;
      current_pf_A 1;
      impedance_pf_A 1;
      
      // Customer Trial Appended Data //
      ausgrid_sa1 11103123342;
      ausgrid_annual_consumption 3941.3;
      ausgrid_annual_consumption_with_control_load 5119.4;
      ausgrid_simple_cell 37;
      ausgrid_elec_band_residential 1;
      ausgrid_elec_band_business 0;
      ausgrid_unit 1;
      ausgrid_income_band 1;
      ausgrid_gas_band 1;
      ausgrid_climate_zone 5;
      ausgrid_controlled_load 1;
      ausgrid_generation 0;
      };


object load {
      name LOAD_8283746;
      parent FDR_19405_LV_SP_5334580;
      phases BN;
      nominal_voltage  240;
      base_power_B Load_19405.result;
      power_fraction_B 1;
      current_fraction_B 0;
      impedance_fraction_B 0;
      power_pf_B L_pf_Head80784.output;
      current_pf_B 1;
      impedance_pf_B 1;
      
      // Customer Trial Appended Data //
      ausgrid_sa1 11103123342;
      ausgrid_annual_consumption 1255.8;
      ausgrid_annual_consumption_with_control_load 2684.4;
      ausgrid_simple_cell 37;
      ausgrid_elec_band_residential 1;
      ausgrid_elec_band_business 0;
      ausgrid_unit 1;
      ausgrid_income_band 1;
      ausgrid_gas_band 1;
      ausgrid_climate_zone 5;
      ausgrid_controlled_load 1;
      ausgrid_generation 0;
      };


object load {
      name LOAD_8283750;
      parent FDR_19405_LV_SP_5334580;
      phases CN;
      nominal_voltage  240;
      base_power_C Load_19405.result;
      power_fraction_C 1;
      current_fraction_C 0;
      impedance_fraction_C 0;
      power_pf_C L_pf_Head80784.output;
      current_pf_C 1;
      impedance_pf_C 1;
      
      // Customer Trial Appended Data //
      ausgrid_sa1 11103123342;
      ausgrid_annual_consumption 3151.6;
      ausgrid_annual_consumption_with_control_load 5098;
      ausgrid_simple_cell 37;
      ausgrid_elec_band_residential 1;
      ausgrid_elec_band_business 0;
      ausgrid_unit 1;
      ausgrid_income_band 1;
      ausgrid_gas_band 1;
      ausgrid_climate_zone 5;
      ausgrid_controlled_load 1;
      ausgrid_generation 0;
      };


object load {
      name LOAD_8283752;
      parent FDR_19405_LV_SP_5334580;
      phases AN;
      nominal_voltage  240;
      base_power_A Load_19405.result;
      power_fraction_A 1;
      current_fraction_A 0;
      impedance_fraction_A 0;
      power_pf_A L_pf_Head80784.output;
      current_pf_A 1;
      impedance_pf_A 1;
      
      // Customer Trial Appended Data //
      ausgrid_sa1 11103123342;
      ausgrid_annual_consumption 2192;
      ausgrid_annual_consumption_with_control_load 3562;
      ausgrid_simple_cell 37;
      ausgrid_elec_band_residential 1;
      ausgrid_elec_band_business 0;
      ausgrid_unit 1;
      ausgrid_income_band 1;
      ausgrid_gas_band 1;
      ausgrid_climate_zone 5;
      ausgrid_controlled_load 1;
      ausgrid_generation 0;
      };


object load {
      name LOAD_8283754;
      parent FDR_19405_LV_SP_5334580;
      phases BN;
      nominal_voltage  240;
      base_power_B Load_19405.result;
      power_fraction_B 1;
      current_fraction_B 0;
      impedance_fraction_B 0;
      power_pf_B L_pf_Head80784.output;
      current_pf_B 1;
      impedance_pf_B 1;
      
      // Customer Trial Appended Data //
      ausgrid_sa1 11103123342;
      ausgrid_annual_consumption 2104.8;
      ausgrid_annual_consumption_with_control_load 3628;
      ausgrid_simple_cell 37;
      ausgrid_elec_band_residential 1;
      ausgrid_elec_band_business 0;
      ausgrid_unit 1;
      ausgrid_income_band 1;
      ausgrid_gas_band 1;
      ausgrid_climate_zone 5;
      ausgrid_controlled_load 1;
      ausgrid_generation 0;
      };


object load {
      name LOAD_8283756;
      parent FDR_19405_LV_SP_5334580;
      phases CN;
      nominal_voltage  240;
      base_power_C Load_19405.result;
      power_fraction_C 1;
      current_fraction_C 0;
      impedance_fraction_C 0;
      power_pf_C L_pf_Head80784.output;
      current_pf_C 1;
      impedance_pf_C 1;
      
      // Customer Trial Appended Data //
      ausgrid_sa1 11103123342;
      ausgrid_annual_consumption 1618.2;
      ausgrid_annual_consumption_with_control_load 2380.6;
      ausgrid_simple_cell 37;
      ausgrid_elec_band_residential 1;
      ausgrid_elec_band_business 0;
      ausgrid_unit 1;
      ausgrid_income_band 1;
      ausgrid_gas_band 1;
      ausgrid_climate_zone 5;
      ausgrid_controlled_load 1;
      ausgrid_generation 0;
      };


object load {
      name LOAD_8283760;
      parent FDR_19405_LV_SP_5334580;
      phases AN;
      nominal_voltage  240;
      base_power_A Load_19405.result;
      power_fraction_A 1;
      current_fraction_A 0;
      impedance_fraction_A 0;
      power_pf_A L_pf_Head80784.output;
      current_pf_A 1;
      impedance_pf_A 1;
      
      // Customer Trial Appended Data //
      ausgrid_sa1 11103123342;
      ausgrid_annual_consumption 882.6;
      ausgrid_annual_consumption_with_control_load 1578.0448276;
      ausgrid_simple_cell 37;
      ausgrid_elec_band_residential 1;
      ausgrid_elec_band_business 0;
      ausgrid_unit 1;
      ausgrid_income_band 1;
      ausgrid_gas_band 1;
      ausgrid_climate_zone 5;
      ausgrid_controlled_load 1;
      ausgrid_generation 0;
      };


object load {
      name LOAD_8283758;
      parent FDR_19405_LV_SP_5334580;
      phases BN;
      nominal_voltage  240;
      base_power_B Load_19405.result;
      power_fraction_B 1;
      current_fraction_B 0;
      impedance_fraction_B 0;
      power_pf_B L_pf_Head80784.output;
      current_pf_B 1;
      impedance_pf_B 1;
      
      // Customer Trial Appended Data //
      ausgrid_sa1 11103123342;
      ausgrid_annual_consumption 1484.5741237;
      ausgrid_annual_consumption_with_control_load 2568.8821649;
      ausgrid_simple_cell 37;
      ausgrid_elec_band_residential 1;
      ausgrid_elec_band_business 0;
      ausgrid_unit 1;
      ausgrid_income_band 1;
      ausgrid_gas_band 1;
      ausgrid_climate_zone 5;
      ausgrid_controlled_load 1;
      ausgrid_generation 0;
      };


object load {
      name LOAD_8283768;
      parent FDR_19405_LV_SP_5334580;
      phases CN;
      nominal_voltage  240;
      base_power_C Load_19405.result;
      power_fraction_C 1;
      current_fraction_C 0;
      impedance_fraction_C 0;
      power_pf_C L_pf_Head80784.output;
      current_pf_C 1;
      impedance_pf_C 1;
      
      // Customer Trial Appended Data //
      ausgrid_sa1 11103123342;
      ausgrid_annual_consumption 1420.5;
      ausgrid_annual_consumption_with_control_load 2476.8;
      ausgrid_simple_cell 37;
      ausgrid_elec_band_residential 1;
      ausgrid_elec_band_business 0;
      ausgrid_unit 1;
      ausgrid_income_band 1;
      ausgrid_gas_band 1;
      ausgrid_climate_zone 5;
      ausgrid_controlled_load 1;
      ausgrid_generation 0;
      };


object load {
      name LOAD_8283770;
      parent FDR_19405_LV_SP_5334580;
      phases AN;
      nominal_voltage  240;
      base_power_A Load_19405.result;
      power_fraction_A 1;
      current_fraction_A 0;
      impedance_fraction_A 0;
      power_pf_A L_pf_Head80784.output;
      current_pf_A 1;
      impedance_pf_A 1;
      
      // Customer Trial Appended Data //
      ausgrid_sa1 11103123342;
      ausgrid_annual_consumption 3532.5;
      ausgrid_annual_consumption_with_control_load 4226.1;
      ausgrid_simple_cell 37;
      ausgrid_elec_band_residential 1;
      ausgrid_elec_band_business 0;
      ausgrid_unit 1;
      ausgrid_income_band 1;
      ausgrid_gas_band 1;
      ausgrid_climate_zone 5;
      ausgrid_controlled_load 1;
      ausgrid_generation 0;
      };


object load {
      name LOAD_8283772;
      parent FDR_19405_LV_SP_5334580;
      phases BN;
      nominal_voltage  240;
      base_power_B Load_19405.result;
      power_fraction_B 1;
      current_fraction_B 0;
      impedance_fraction_B 0;
      power_pf_B L_pf_Head80784.output;
      current_pf_B 1;
      impedance_pf_B 1;
      
      // Customer Trial Appended Data //
      ausgrid_sa1 11103123342;
      ausgrid_annual_consumption 1830.4;
      ausgrid_annual_consumption_with_control_load 2951.1;
      ausgrid_simple_cell 37;
      ausgrid_elec_band_residential 1;
      ausgrid_elec_band_business 0;
      ausgrid_unit 1;
      ausgrid_income_band 1;
      ausgrid_gas_band 1;
      ausgrid_climate_zone 5;
      ausgrid_controlled_load 1;
      ausgrid_generation 0;
      };


object load {
      name LOAD_8283774;
      parent FDR_19405_LV_SP_5334580;
      phases CN;
      nominal_voltage  240;
      base_power_C Load_19405.result;
      power_fraction_C 1;
      current_fraction_C 0;
      impedance_fraction_C 0;
      power_pf_C L_pf_Head80784.output;
      current_pf_C 1;
      impedance_pf_C 1;
      
      // Customer Trial Appended Data //
      ausgrid_sa1 11103123342;
      ausgrid_annual_consumption 2705.9;
      ausgrid_annual_consumption_with_control_load 4174.1;
      ausgrid_simple_cell 37;
      ausgrid_elec_band_residential 1;
      ausgrid_elec_band_business 0;
      ausgrid_unit 1;
      ausgrid_income_band 1;
      ausgrid_gas_band 1;
      ausgrid_climate_zone 5;
      ausgrid_controlled_load 1;
      ausgrid_generation 0;
      };


object load {
      name LOAD_8283776;
      parent FDR_19405_LV_SP_5334580;
      phases AN;
      nominal_voltage  240;
      base_power_A Load_19405.result;
      power_fraction_A 1;
      current_fraction_A 0;
      impedance_fraction_A 0;
      power_pf_A L_pf_Head80784.output;
      current_pf_A 1;
      impedance_pf_A 1;
      
      // Customer Trial Appended Data //
      ausgrid_sa1 11103123342;
      ausgrid_annual_consumption 1881.6;
      ausgrid_annual_consumption_with_control_load 2604;
      ausgrid_simple_cell 37;
      ausgrid_elec_band_residential 1;
      ausgrid_elec_band_business 0;
      ausgrid_unit 1;
      ausgrid_income_band 1;
      ausgrid_gas_band 1;
      ausgrid_climate_zone 5;
      ausgrid_controlled_load 1;
      ausgrid_generation 0;
      };


object load {
      name LOAD_8283778;
      parent FDR_19405_LV_SP_5334580;
      phases BN;
      nominal_voltage  240;
      base_power_B Load_19405.result;
      power_fraction_B 1;
      current_fraction_B 0;
      impedance_fraction_B 0;
      power_pf_B L_pf_Head80784.output;
      current_pf_B 1;
      impedance_pf_B 1;
      
      // Customer Trial Appended Data //
      ausgrid_sa1 11103123342;
      ausgrid_annual_consumption 2006.8;
      ausgrid_annual_consumption_with_control_load 3791.1;
      ausgrid_simple_cell 37;
      ausgrid_elec_band_residential 1;
      ausgrid_elec_band_business 0;
      ausgrid_unit 1;
      ausgrid_income_band 1;
      ausgrid_gas_band 1;
      ausgrid_climate_zone 5;
      ausgrid_controlled_load 1;
      ausgrid_generation 0;
      };


object overhead_line {
      name FDR_19405_LV_NODE_032_1-FDR_19405_LV_SP_5334646;
      phases CN;
      from FDR_19405_LV_NODE_032_1;
      to FDR_19405_LV_SP_5334646;
      length 14.5 m;
      configuration conf_OHLine_600;
      };



object meter {
      name FDR_19405_LV_SP_5334646;
      phases CN;
      nominal_voltage  240;
      };


object load {
      name LOAD_8283690;
      parent FDR_19405_LV_SP_5334646;
      phases CN;
      nominal_voltage  240;
      base_power_C Load_19405.result;
      power_fraction_C 1;
      current_fraction_C 0;
      impedance_fraction_C 0;
      power_pf_C L_pf_Head80784.output;
      current_pf_C 1;
      impedance_pf_C 1;
      
      // Customer Trial Appended Data //
      ausgrid_sa1 11103123342;
      ausgrid_annual_consumption 890;
      ausgrid_annual_consumption_with_control_load 890;
      ausgrid_simple_cell 25;
      ausgrid_elec_band_residential 1;
      ausgrid_elec_band_business 0;
      ausgrid_unit 0;
      ausgrid_income_band 1;
      ausgrid_gas_band 1;
      ausgrid_climate_zone 5;
      ausgrid_controlled_load 0;
      ausgrid_generation 0;
      };


object overhead_line {
      name FDR_19405_LV_NODE_032_1-FDR_19405_LV_SP_5334645;
      phases CN;
      from FDR_19405_LV_NODE_032_1;
      to FDR_19405_LV_SP_5334645;
      length 22.2 m;
      configuration conf_OHLine_600;
      };



object meter {
      name FDR_19405_LV_SP_5334645;
      phases CN;
      nominal_voltage  240;
      };


object load {
      name LOAD_8283694;
      parent FDR_19405_LV_SP_5334645;
      phases CN;
      nominal_voltage  240;
      base_power_C Load_19405.result;
      power_fraction_C 1;
      current_fraction_C 0;
      impedance_fraction_C 0;
      power_pf_C L_pf_Head80784.output;
      current_pf_C 1;
      impedance_pf_C 1;
      
      // Customer Trial Appended Data //
      ausgrid_sa1 11103123342;
      ausgrid_annual_consumption 1631.3636364;
      ausgrid_annual_consumption_with_control_load 1631.3636364;
      ausgrid_simple_cell 25;
      ausgrid_elec_band_residential 1;
      ausgrid_elec_band_business 0;
      ausgrid_unit 0;
      ausgrid_income_band 1;
      ausgrid_gas_band 1;
      ausgrid_climate_zone 5;
      ausgrid_controlled_load 0;
      ausgrid_generation 0;
      };


object overhead_line {
      name FDR_19405_LV_NODE_031_1-FDR_19405_LV_SP_5334769;
      phases AN;
      from FDR_19405_LV_NODE_031_1;
      to FDR_19405_LV_SP_5334769;
      length 17.1 m;
      configuration conf_OHLine_600;
      };



object meter {
      name FDR_19405_LV_SP_5334769;
      phases AN;
      nominal_voltage  240;
      };


object load {
      name LOAD_8283706;
      parent FDR_19405_LV_SP_5334769;
      phases AN;
      nominal_voltage  240;
      base_power_A Load_19405.result;
      power_fraction_A 1;
      current_fraction_A 0;
      impedance_fraction_A 0;
      power_pf_A L_pf_Head80784.output;
      current_pf_A 1;
      impedance_pf_A 1;
      
      // Customer Trial Appended Data //
      ausgrid_sa1 11103123322;
      ausgrid_annual_consumption 3617.1363636;
      ausgrid_annual_consumption_with_control_load 3617.1363636;
      ausgrid_simple_cell 25;
      ausgrid_elec_band_residential 1;
      ausgrid_elec_band_business 0;
      ausgrid_unit 0;
      ausgrid_income_band 1;
      ausgrid_gas_band 1;
      ausgrid_climate_zone 5;
      ausgrid_controlled_load 0;
      ausgrid_generation 0;
      };


object overhead_line {
      name FDR_19405_LV_NODE_031_1-FDR_19405_LV_SP_5334768;
      phases ABCN;
      from FDR_19405_LV_NODE_031_1;
      to FDR_19405_LV_SP_5334768;
      length 13.1 m;
      configuration conf_OHLine_600;
      };



object meter {
      name FDR_19405_LV_SP_5334768;
      phases ABCN;
      nominal_voltage  240;
      };


object load {
      name LOAD_8283704;
      parent FDR_19405_LV_SP_5334768;
      phases BN;
      nominal_voltage  240;
      base_power_B Load_19405.result;
      power_fraction_B 1;
      current_fraction_B 0;
      impedance_fraction_B 0;
      power_pf_B L_pf_Head80784.output;
      current_pf_B 1;
      impedance_pf_B 1;
      
      // Customer Trial Appended Data //
      ausgrid_sa1 11103123322;
      ausgrid_annual_consumption 4151.8136364;
      ausgrid_annual_consumption_with_control_load 4151.8136364;
      ausgrid_simple_cell 25;
      ausgrid_elec_band_residential 1;
      ausgrid_elec_band_business 0;
      ausgrid_unit 0;
      ausgrid_income_band 1;
      ausgrid_gas_band 1;
      ausgrid_climate_zone 5;
      ausgrid_controlled_load 0;
      ausgrid_generation 0;
      };


object load {
      name LOAD_8283710;
      parent FDR_19405_LV_SP_5334768;
      phases ABCN;
      nominal_voltage  240;
      base_power_A Load_19405.result;
      power_fraction_A 1;
      current_fraction_A 0;
      impedance_fraction_A 0;
      power_pf_A L_pf_Head80784.output;
      current_pf_A 1;
      impedance_pf_A 1;
      base_power_B Load_19405.result;
      power_fraction_B 1;
      current_fraction_B 0;
      impedance_fraction_B 0;
      power_pf_B L_pf_Head80784.output;
      current_pf_B 1;
      impedance_pf_B 1;
      base_power_C Load_19405.result;
      power_fraction_C 1;
      current_fraction_C 0;
      impedance_fraction_C 0;
      power_pf_C L_pf_Head80784.output;
      current_pf_C 1;
      impedance_pf_C 1;
      
      // Customer Trial Appended Data //
      // No NMI Data
      };


object overhead_line {
      name FDR_19405_LV_NODE_030_4-FDR_19405_LV_SP_5334765;
      phases CN;
      from FDR_19405_LV_NODE_030_4;
      to FDR_19405_LV_SP_5334765;
      length 19.2 m;
      configuration conf_OHLine_600;
      };



object meter {
      name FDR_19405_LV_SP_5334765;
      phases CN;
      nominal_voltage  240;
      };


object load {
      name LOAD_8283692;
      parent FDR_19405_LV_SP_5334765;
      phases CN;
      nominal_voltage  240;
      base_power_C Load_19405.result;
      power_fraction_C 1;
      current_fraction_C 0;
      impedance_fraction_C 0;
      power_pf_C L_pf_Head80784.output;
      current_pf_C 1;
      impedance_pf_C 1;
      
      // Customer Trial Appended Data //
      ausgrid_sa1 11103123322;
      ausgrid_annual_consumption 4357.6568182;
      ausgrid_annual_consumption_with_control_load 8129.2227273;
      ausgrid_simple_cell 25;
      ausgrid_elec_band_residential 1;
      ausgrid_elec_band_business 0;
      ausgrid_unit 0;
      ausgrid_income_band 1;
      ausgrid_gas_band 1;
      ausgrid_climate_zone 5;
      ausgrid_controlled_load 1;
      ausgrid_generation 0;
      };


object overhead_line {
      name FDR_19405_LV_NODE_030_4-FDR_19405_LV_SP_5334648;
      phases BN;
      from FDR_19405_LV_NODE_030_4;
      to FDR_19405_LV_SP_5334648;
      length 27.7 m;
      configuration conf_OHLine_600;
      };



object meter {
      name FDR_19405_LV_SP_5334648;
      phases BN;
      nominal_voltage  240;
      };


object load {
      name LOAD_8283680;
      parent FDR_19405_LV_SP_5334648;
      phases BN;
      nominal_voltage  240;
      base_power_B Load_19405.result;
      power_fraction_B 1;
      current_fraction_B 0;
      impedance_fraction_B 0;
      power_pf_B L_pf_Head80784.output;
      current_pf_B 1;
      impedance_pf_B 1;
      
      // Customer Trial Appended Data //
      ausgrid_sa1 11103123342;
      ausgrid_annual_consumption 3643.6977273;
      ausgrid_annual_consumption_with_control_load 5838.1977273;
      ausgrid_simple_cell 25;
      ausgrid_elec_band_residential 1;
      ausgrid_elec_band_business 0;
      ausgrid_unit 0;
      ausgrid_income_band 1;
      ausgrid_gas_band 1;
      ausgrid_climate_zone 5;
      ausgrid_controlled_load 1;
      ausgrid_generation 0;
      };


object overhead_line {
      name FDR_19405_LV_NODE_030_4-FDR_19405_LV_SP_7110958;
      phases CN;
      from FDR_19405_LV_NODE_030_4;
      to FDR_19405_LV_SP_7110958;
      length 30.0 m;
      configuration conf_OHLine_57018;
      };



object meter {
      name FDR_19405_LV_SP_7110958;
      phases CN;
      nominal_voltage  240;
      };


object load {
      name LOAD_8283728;
      parent FDR_19405_LV_SP_7110958;
      phases CN;
      nominal_voltage  240;
      base_power_C Load_19405.result;
      power_fraction_C 1;
      current_fraction_C 0;
      impedance_fraction_C 0;
      power_pf_C L_pf_Head80784.output;
      current_pf_C 1;
      impedance_pf_C 1;
      
      // Customer Trial Appended Data //
      ausgrid_sa1 11103123342;
      ausgrid_annual_consumption 2000.0848454;
      ausgrid_annual_consumption_with_control_load 3206.0254639;
      ausgrid_simple_cell 37;
      ausgrid_elec_band_residential 1;
      ausgrid_elec_band_business 0;
      ausgrid_unit 1;
      ausgrid_income_band 1;
      ausgrid_gas_band 1;
      ausgrid_climate_zone 5;
      ausgrid_controlled_load 1;
      ausgrid_generation 0;
      };


object load {
      name LOAD_8283764;
      parent FDR_19405_LV_SP_7110958;
      phases CN;
      nominal_voltage  240;
      base_power_C Load_19405.result;
      power_fraction_C 1;
      current_fraction_C 0;
      impedance_fraction_C 0;
      power_pf_C L_pf_Head80784.output;
      current_pf_C 1;
      impedance_pf_C 1;
      
      // Customer Trial Appended Data //
      ausgrid_sa1 11103123342;
      ausgrid_annual_consumption 2473.3035052;
      ausgrid_annual_consumption_with_control_load 3995.5104124;
      ausgrid_simple_cell 37;
      ausgrid_elec_band_residential 1;
      ausgrid_elec_band_business 0;
      ausgrid_unit 1;
      ausgrid_income_band 1;
      ausgrid_gas_band 1;
      ausgrid_climate_zone 5;
      ausgrid_controlled_load 1;
      ausgrid_generation 0;
      };


object overhead_line {
      name FDR_19405_LV_NODE_030_4-FDR_19405_LV_SP_5334766;
      phases AN;
      from FDR_19405_LV_NODE_030_4;
      to FDR_19405_LV_SP_5334766;
      length 12.7 m;
      configuration conf_OHLine_600;
      };



object meter {
      name FDR_19405_LV_SP_5334766;
      phases AN;
      nominal_voltage  240;
      };


object load {
      name LOAD_8283696;
      parent FDR_19405_LV_SP_5334766;
      phases AN;
      nominal_voltage  240;
      base_power_A Load_19405.result;
      power_fraction_A 1;
      current_fraction_A 0;
      impedance_fraction_A 0;
      power_pf_A L_pf_Head80784.output;
      current_pf_A 1;
      impedance_pf_A 1;
      
      // Customer Trial Appended Data //
      ausgrid_sa1 11103123322;
      ausgrid_annual_consumption 2775.4090909;
      ausgrid_annual_consumption_with_control_load 4361.6590909;
      ausgrid_simple_cell 25;
      ausgrid_elec_band_residential 1;
      ausgrid_elec_band_business 0;
      ausgrid_unit 0;
      ausgrid_income_band 1;
      ausgrid_gas_band 1;
      ausgrid_climate_zone 5;
      ausgrid_controlled_load 1;
      ausgrid_generation 0;
      };


object overhead_line {
      name FDR_19405_LV_NODE_027_1-FDR_19405_LV_SP_5334625;
      phases BN;
      from FDR_19405_LV_NODE_027_1;
      to FDR_19405_LV_SP_5334625;
      length 26.0 m;
      configuration conf_OHLine_600;
      };



object meter {
      name FDR_19405_LV_SP_5334625;
      phases BN;
      nominal_voltage  240;
      };


object load {
      name LOAD_8283652;
      parent FDR_19405_LV_SP_5334625;
      phases BN;
      nominal_voltage  240;
      base_power_B Load_19405.result;
      power_fraction_B 1;
      current_fraction_B 0;
      impedance_fraction_B 0;
      power_pf_B L_pf_Head80784.output;
      current_pf_B 1;
      impedance_pf_B 1;
      
      // Customer Trial Appended Data //
      ausgrid_sa1 11103123337;
      ausgrid_annual_consumption 8465.3511831;
      ausgrid_annual_consumption_with_control_load 10352.260274;
      ausgrid_simple_cell 26;
      ausgrid_elec_band_residential 2;
      ausgrid_elec_band_business 0;
      ausgrid_unit 0;
      ausgrid_income_band 1;
      ausgrid_gas_band 1;
      ausgrid_climate_zone 5;
      ausgrid_controlled_load 1;
      ausgrid_generation 0;
      };


object switch {
      name FDR_19405_LV_NODE_026-FDR_19405_LV_NODE_027_5;
      phases ABCN;
      from FDR_19405_LV_NODE_026;
      to FDR_19405_LV_NODE_027_5;
      status CLOSED;
      };



object meter {
      name FDR_19405_LV_NODE_027_5;
      phases ABCN;
      nominal_voltage  240;
      };


object underground_line {
      name FDR_19405_LV_NODE_027_5-FDR_19405_LV_SP_5334628;
      phases CN;
      from FDR_19405_LV_NODE_027_5;
      to FDR_19405_LV_SP_5334628;
      length 14.7 m;
      configuration conf_UGLine_500;
      };



object meter {
      name FDR_19405_LV_SP_5334628;
      phases CN;
      nominal_voltage  240;
      };


object load {
      name LOAD_8283670;
      parent FDR_19405_LV_SP_5334628;
      phases CN;
      nominal_voltage  240;
      base_power_C Load_19405.result;
      power_fraction_C 1;
      current_fraction_C 0;
      impedance_fraction_C 0;
      power_pf_C L_pf_Head80784.output;
      current_pf_C 1;
      impedance_pf_C 1;
      
      // Customer Trial Appended Data //
      ausgrid_sa1 11103123342;
      ausgrid_annual_consumption 11067.961649;
      ausgrid_annual_consumption_with_control_load 11669.927835;
      ausgrid_simple_cell 27;
      ausgrid_elec_band_residential 3;
      ausgrid_elec_band_business 0;
      ausgrid_unit 0;
      ausgrid_income_band 1;
      ausgrid_gas_band 1;
      ausgrid_climate_zone 5;
      ausgrid_controlled_load 1;
      ausgrid_generation 1;
      };


object inverter {
      name DG_8283670;
      parent FDR_19405_LV_SP_5334628;
      phases CN;
      generator_mode CONSTANT_PF;
      generator_status ONLINE;
      inverter_type PWM;
      power_factor 0.9;
      rated_power 10000;
      inverter_efficiency 0.95;
      };


object solar {
      name SOLAR_8283670;
      parent DG_8283670;
      phases CN;
      generator_status ONLINE;
      weather ElermoreClimate;
      panel_type SINGLE_CRYSTAL_SILICON;
      generator_mode CONSTANT_PF;
      area 13.542 m^2;
      tilt_angle 25;
      efficiency 0.14;
      orientation_azimuth 40;
      orientation  FIXED_AXIS;
      SOLAR_TILT_MODEL  SOLPOS;
      SOLAR_POWER_MODEL  DEFAULT;
      };


object overhead_line {
      name FDR_19405_LV_NODE_026-FDR_19405_LV_SP_5334622;
      phases CN;
      from FDR_19405_LV_NODE_026;
      to FDR_19405_LV_SP_5334622;
      length 33.4 m;
      configuration conf_OHLine_600;
      };



object meter {
      name FDR_19405_LV_SP_5334622;
      phases CN;
      nominal_voltage  240;
      };


object load {
      name LOAD_8283564;
      parent FDR_19405_LV_SP_5334622;
      phases CN;
      nominal_voltage  240;
      base_power_C Load_19405.result;
      power_fraction_C 1;
      current_fraction_C 0;
      impedance_fraction_C 0;
      power_pf_C L_pf_Head80784.output;
      current_pf_C 1;
      impedance_pf_C 1;
      
      // Customer Trial Appended Data //
      ausgrid_sa1 11103123337;
      ausgrid_annual_consumption 2466.9545455;
...